// 
simulator lang=spectre insensitive=yes 
library tsmclib 
//   **************************************************************   
//   *  TSMC SPICE MODEL --- Security B - TSMC Restricted Secret  *   
//   **************************************************************   
//    
//     PROCESS :  0.028um LOGIC HIGH PERFORMANCE COMPACT MOBILE COMPUTING PLUS High Voltage 1.8V SPICE MODEL 28HPC+ (5V HVMOS) 
//     MODEL   :  BSIM4 ( V4.5 )   
//     DOC. NO.:  T-N28-CL-SP-083  
//     VERSION :  v0.1_2p1   
//     DATE    :  06:15PM, Aug. 15, 2015   
//     SPECTRE VERSION : 13.1.1.252.isr11  
//    
// *************************************************************************************************
//  Release Note:							                     						                                     *  
//    Date         Version	  Description	  				 					                                       *  
// 1. 2015/08/15   v0.1_2p1      1. Copy from T-N28-CL-SP-043 for 1.8V/5V HVMOS.                       *  
// *************************************************************************************************  
// ***************************************************************************************************  
//    
//  THIS MODEL LIB CONTAINS :                                                  
//                         *   
//                                                                             
//                         *   
//   1.LIB stat_hv                                                           
//                         *   
//     (MOSFET Common used statistical library)                                
//                         *   
//                                                                             
//                         *   
//   2.LIB global_hv18                                                         
//                         *   
//     (1.8V I/O HV devices with different geometric and global monte carlo models)  
//                   *   
//                                                                             
//                         *   
//   3.LIB Total_hv18                                                          
//                         *   
//     (1.8V I/O HV devices with different geometric and total monte carlo models)  
//                    *   
//                                                                             
//                         *   
//   4.LIB ttg_hv18                                                            
//                         *   
//         ssg_hv18                                                            
//                         *   
//         ffg_hv18                                                            
//                         *   
//         sfg_hv18                                                            
//                         *   
//         fsg_hv18                                                            
//                         *   
//     (1.8V I/O HV devices with different geometric and global corner models)  
//                        *   
//                                                                             
//                         *   
//   5.LIB TT_hv18                                                             
//                         *   
//         SS_hv18                                                             
//                         *   
//         FF_hv18                                                             
//                         *   
//         SF_hv18                                                             
//                         *   
//         FS_hv18                                                             
//                         *   
//     (1.8V I/O HV devices with different geometric and corner models)        
//                         *   
//                                                                             
//                         *   
// ***************************************************************************************************  
//    
  
  
 
  
 
section setup_hv18 
parameters ccoflag_hv18=0 
parameters rgflag_hv18=0 
parameters sigma_factor_hv18=1 
parameters rcoflag_hv18=0 
parameters factor_mos_hv18=0.9 
parameters totalflag_mos_hv18=1 
parameters globalflag_mos_hv18=1 
parameters mismatchflag_mos_hv18=1 
parameters global_factor_hv18=1 
parameters local_factor_hv18=1 
  
endsection setup_hv18 
  
 
section stat_hv 
parameters r1_hv=0 
parameters r2_hv=0 
parameters r3_hv=0 
parameters r4_hv=0 
parameters r5_hv=0 
parameters par1_hv=r1_hv 
parameters par2_hv=r2_hv 
parameters par3_hv=r3_hv 
parameters par4_hv=r4_hv 
parameters par5_hv=r5_hv 
parameters r6_hv=0 
parameters r7_hv=0 
parameters r8_hv=0 
parameters r9_hv=0 
parameters r10_hv=0 
parameters par6_hv=r6_hv 
parameters par7_hv=r7_hv 
parameters par8_hv=r8_hv 
parameters par9_hv=r9_hv 
parameters par10_hv=r10_hv 
parameters r11_hv=0 
parameters r12_hv=0 
parameters r13_hv=0 
parameters r14_hv=0 
parameters r15_hv=0 
parameters par11_hv=r11_hv 
parameters par12_hv=r12_hv 
parameters par13_hv=r13_hv 
parameters par14_hv=r14_hv 
parameters par15_hv=r15_hv 
parameters r16_hv=0 
parameters r17_hv=0 
parameters r18_hv=0 
parameters r19_hv=0 
parameters r20_hv=0 
parameters par16_hv=r16_hv 
parameters par17_hv=r17_hv 
parameters par18_hv=r18_hv 
parameters par19_hv=r19_hv 
parameters par20_hv=r20_hv 
parameters r21_hv=0 
parameters r22_hv=0 
parameters r23_hv=0 
parameters r24_hv=0 
parameters r25_hv=0 
parameters par21_hv=r21_hv 
parameters par22_hv=r22_hv 
parameters par23_hv=r23_hv 
parameters par24_hv=r24_hv 
parameters par25_hv=r25_hv 
parameters r26_hv=0 
parameters r27_hv=0 
parameters r28_hv=0 
parameters r29_hv=0 
parameters r30_hv=0 
parameters par26_hv=r26_hv 
parameters par27_hv=r27_hv 
parameters par28_hv=r28_hv 
parameters par29_hv=r29_hv 
parameters par30_hv=r30_hv 
parameters r31_hv=0 
parameters r32_hv=0 
parameters par31_hv=r31_hv 
parameters par32_hv=r32_hv 
parameters r1_io_hv=0 
parameters r2_io_hv=0 
parameters r3_io_hv=0 
parameters r4_io_hv=0 
parameters r5_io_hv=0 
parameters par1_io_hv=r1_io_hv 
parameters par2_io_hv=r2_io_hv 
parameters par3_io_hv=r3_io_hv 
parameters par4_io_hv=r4_io_hv 
parameters par5_io_hv=r5_io_hv 
parameters r6_io_hv=0 
parameters r7_io_hv=0 
parameters r8_io_hv=0 
parameters r9_io_hv=0 
parameters r10_io_hv=0 
parameters par6_io_hv=r6_io_hv 
parameters par7_io_hv=r7_io_hv 
parameters par8_io_hv=r8_io_hv 
parameters par9_io_hv=r9_io_hv 
parameters par10_io_hv=r10_io_hv 
parameters r11_io_hv=0 
parameters r12_io_hv=0 
parameters r13_io_hv=0 
parameters r14_io_hv=0 
parameters r15_io_hv=0 
parameters par11_io_hv=r11_io_hv 
parameters par12_io_hv=r12_io_hv 
parameters par13_io_hv=r13_io_hv 
parameters par14_io_hv=r14_io_hv 
parameters par15_io_hv=r15_io_hv 
parameters r16_io_hv=0 
parameters r17_io_hv=0 
parameters r18_io_hv=0 
parameters r19_io_hv=0 
parameters r20_io_hv=0 
parameters par16_io_hv=r16_io_hv 
parameters par17_io_hv=r17_io_hv 
parameters par18_io_hv=r18_io_hv 
parameters par19_io_hv=r19_io_hv 
parameters par20_io_hv=r20_io_hv 
parameters plo_tox_hv=0 
parameters plo_dxl_hv=0 
parameters plo_dxw_hv=0 
parameters parl1_hv=0 
parameters parl2_hv=0 
parameters r1_cap_hv=0 
parameters r2_cap_hv=0 
parameters par1_cap_hv=r1_cap_hv 
parameters par2_cap_hv=r2_cap_hv 
parameters w1_c_hv=2.0125 * 0.40825 
parameters w2_c_hv=0.86603 *  - 0.40825 
parameters w3_c_hv=0.54772 * 0.22744 
parameters w4_c_hv=0.54772 *  - 0.40547 
parameters w5_c_hv=0.54772 *  - 0.12313 
parameters w6_c_hv=0.54772 * 0.65982 
parameters w7_c_hv=0 
parameters w8_c_hv=0 
parameters w9_c_hv=0 
parameters w10_c_hv=0 
parameters w11_c_hv=2.0125 * 0.40825 
parameters w12_c_hv=0.86603 * 0.40825 
parameters w13_c_hv=0.54772 *  - 0.32234 
parameters w14_c_hv=0.54772 *  - 0.3726 
parameters w15_c_hv=0.54772 *  - 0.60858 
parameters w16_c_hv=0.54772 *  - 0.23143 
parameters w17_c_hv=0 
parameters w18_c_hv=0 
parameters w19_c_hv=0 
parameters w20_c_hv=0 
parameters w21_c_hv=2.0125 * 0.40825 
parameters w22_c_hv=0.86603 *  - 0.40825 
parameters w23_c_hv=0.54772 * 0.41074 
parameters w24_c_hv=0.54772 * 0.45095 
parameters w25_c_hv=0.54772 *  - 0.32968 
parameters w26_c_hv=0.54772 *  - 0.43118 
parameters w27_c_hv=0 
parameters w28_c_hv=0 
parameters w29_c_hv=0 
parameters w30_c_hv=0 
parameters w31_c_hv=2.0125 * 0.40825 
parameters w32_c_hv=0.86603 * 0.40825 
parameters w33_c_hv=0.54772 *  - 0.16779 
parameters w34_c_hv=0.54772 * 0.6456 
parameters w35_c_hv=0.54772 * 0.063924 
parameters w36_c_hv=0.54772 * 0.4665 
parameters w37_c_hv=0 
parameters w38_c_hv=0 
parameters w39_c_hv=0 
parameters w40_c_hv=0 
parameters w41_c_hv=2.0125 * 0.40825 
parameters w42_c_hv=0.86603 *  - 0.40825 
parameters w43_c_hv=0.54772 *  - 0.63819 
parameters w44_c_hv=0.54772 *  - 0.045477 
parameters w45_c_hv=0.54772 * 0.45281 
parameters w46_c_hv=0.54772 *  - 0.22865 
parameters w47_c_hv=0 
parameters w48_c_hv=0 
parameters w49_c_hv=0 
parameters w50_c_hv=0 
parameters w51_c_hv=2.0125 * 0.40825 
parameters w52_c_hv=0.86603 * 0.40825 
parameters w53_c_hv=0.54772 * 0.49013 
parameters w54_c_hv=0.54772 *  - 0.273 
parameters w55_c_hv=0.54772 * 0.54466 
parameters w56_c_hv=0.54772 *  - 0.23507 
parameters w57_c_hv=0 
parameters w58_c_hv=0 
parameters w59_c_hv=0 
parameters w60_c_hv=0 
parameters w61_c_hv=0 
parameters w62_c_hv=0 
parameters w63_c_hv=0 
parameters w64_c_hv=0 
parameters w65_c_hv=0 
parameters w66_c_hv=0 
parameters w67_c_hv=0 
parameters w68_c_hv=0 
parameters w69_c_hv=0 
parameters w70_c_hv=0 
parameters w71_c_hv=0 
parameters w72_c_hv=0 
parameters w73_c_hv=0 
parameters w74_c_hv=0 
parameters w75_c_hv=0 
parameters w76_c_hv=0 
parameters w77_c_hv=0 
parameters w78_c_hv=0 
parameters w79_c_hv=0 
parameters w80_c_hv=0 
parameters w81_c_hv=0 
parameters w82_c_hv=0 
parameters w83_c_hv=0 
parameters w84_c_hv=0 
parameters w85_c_hv=0 
parameters w86_c_hv=0 
parameters w87_c_hv=0 
parameters w88_c_hv=0 
parameters w89_c_hv=0 
parameters w90_c_hv=0 
parameters w91_c_hv=0 
parameters w92_c_hv=0 
parameters w93_c_hv=0 
parameters w94_c_hv=0 
parameters w95_c_hv=0 
parameters w96_c_hv=0 
parameters w97_c_hv=0 
parameters w98_c_hv=0 
parameters w99_c_hv=0 
parameters w100_c_hv=0 
parameters w1_io_hv=2.0125 * 0.40825 
parameters w2_io_hv=0.86603 *  - 0.40825 
parameters w3_io_hv=0.54772 * 0.22744 
parameters w4_io_hv=0.54772 *  - 0.40547 
parameters w5_io_hv=0.54772 *  - 0.12313 
parameters w6_io_hv=0.54772 * 0.65982 
parameters w7_io_hv=2.0125 * 0.40825 
parameters w8_io_hv=0.86603 * 0.40825 
parameters w9_io_hv=0.54772 *  - 0.32234 
parameters w10_io_hv=0.54772 *  - 0.3726 
parameters w11_io_hv=0.54772 *  - 0.60858 
parameters w12_io_hv=0.54772 *  - 0.23143 
parameters w13_io_hv=2.0125 * 0.40825 
parameters w14_io_hv=0.86603 *  - 0.40825 
parameters w15_io_hv=0.54772 * 0.41074 
parameters w16_io_hv=0.54772 * 0.45095 
parameters w17_io_hv=0.54772 *  - 0.32968 
parameters w18_io_hv=0.54772 *  - 0.43118 
parameters w19_io_hv=2.0125 * 0.40825 
parameters w20_io_hv=0.86603 * 0.40825 
parameters w21_io_hv=0.54772 *  - 0.16779 
parameters w22_io_hv=0.54772 * 0.6456 
parameters w23_io_hv=0.54772 * 0.063924 
parameters w24_io_hv=0.54772 * 0.4665 
parameters w25_io_hv=2.0125 * 0.40825 
parameters w26_io_hv=0.86603 *  - 0.40825 
parameters w27_io_hv=0.54772 *  - 0.63819 
parameters w28_io_hv=0.54772 *  - 0.045477 
parameters w29_io_hv=0.54772 * 0.45281 
parameters w30_io_hv=0.54772 *  - 0.22865 
parameters w31_io_hv=2.0125 * 0.40825 
parameters w32_io_hv=0.86603 * 0.40825 
parameters w33_io_hv=0.54772 * 0.49013 
parameters w34_io_hv=0.54772 *  - 0.273 
parameters w35_io_hv=0.54772 * 0.54466 
parameters w36_io_hv=0.54772 *  - 0.23507 
parameters p1_c1n_hv=w1_c_hv * par1_hv + w2_c_hv * par2_hv + w3_c_hv * par3_hv + w4_c_hv * par4_hv + w5_c_hv *  
+ par5_hv + w6_c_hv * par6_hv + w7_c_hv * par7_hv + w8_c_hv * par8_hv + w9_c_hv * par9_hv + w10_c_hv * par10_hv 
parameters p1_c1p_hv=w11_c_hv * par1_hv + w12_c_hv * par2_hv + w13_c_hv * par3_hv + w14_c_hv * par4_hv + w15_c_hv  
+ * par5_hv + w16_c_hv * par6_hv + w17_c_hv * par7_hv + w18_c_hv * par8_hv + w19_c_hv * par9_hv + w20_c_hv * par10_hv 
parameters p1_c2n_hv=w21_c_hv * par1_hv + w22_c_hv * par2_hv + w23_c_hv * par3_hv + w24_c_hv * par4_hv + w25_c_hv  
+ * par5_hv + w26_c_hv * par6_hv + w27_c_hv * par7_hv + w28_c_hv * par8_hv + w29_c_hv * par9_hv + w30_c_hv * par10_hv 
parameters p1_c2p_hv=w31_c_hv * par1_hv + w32_c_hv * par2_hv + w33_c_hv * par3_hv + w34_c_hv * par4_hv + w35_c_hv  
+ * par5_hv + w36_c_hv * par6_hv + w37_c_hv * par7_hv + w38_c_hv * par8_hv + w39_c_hv * par9_hv + w40_c_hv * par10_hv 
parameters p1_c3n_hv=w41_c_hv * par1_hv + w42_c_hv * par2_hv + w43_c_hv * par3_hv + w44_c_hv * par4_hv + w45_c_hv  
+ * par5_hv + w46_c_hv * par6_hv + w47_c_hv * par7_hv + w48_c_hv * par8_hv + w49_c_hv * par9_hv + w50_c_hv * par10_hv 
parameters p1_c3p_hv=w51_c_hv * par1_hv + w52_c_hv * par2_hv + w53_c_hv * par3_hv + w54_c_hv * par4_hv + w55_c_hv  
+ * par5_hv + w56_c_hv * par6_hv + w57_c_hv * par7_hv + w58_c_hv * par8_hv + w59_c_hv * par9_hv + w60_c_hv * par10_hv 
parameters p1_c4n_hv=w61_c_hv * par1_hv + w62_c_hv * par2_hv + w63_c_hv * par3_hv + w64_c_hv * par4_hv + w65_c_hv  
+ * par5_hv + w66_c_hv * par6_hv + w67_c_hv * par7_hv + w68_c_hv * par8_hv + w69_c_hv * par9_hv + w70_c_hv * par10_hv 
parameters p1_c4p_hv=w71_c_hv * par1_hv + w72_c_hv * par2_hv + w73_c_hv * par3_hv + w74_c_hv * par4_hv + w75_c_hv  
+ * par5_hv + w76_c_hv * par6_hv + w77_c_hv * par7_hv + w78_c_hv * par8_hv + w79_c_hv * par9_hv + w80_c_hv * par10_hv 
parameters p1_c5n_hv=w81_c_hv * par1_hv + w82_c_hv * par2_hv + w83_c_hv * par3_hv + w84_c_hv * par4_hv + w85_c_hv  
+ * par5_hv + w86_c_hv * par6_hv + w87_c_hv * par7_hv + w88_c_hv * par8_hv + w89_c_hv * par9_hv + w90_c_hv * par10_hv 
parameters p1_c5p_hv=w91_c_hv * par1_hv + w92_c_hv * par2_hv + w93_c_hv * par3_hv + w94_c_hv * par4_hv + w95_c_hv  
+ * par5_hv + w96_c_hv * par6_hv + w97_c_hv * par7_hv + w98_c_hv * par8_hv + w99_c_hv * par9_hv + w100_c_hv *  
+ par10_hv 
parameters p2_c1n_hv=w1_c_hv * par11_hv + w2_c_hv * par12_hv + w3_c_hv * par13_hv + w4_c_hv * par14_hv + w5_c_hv  
+ * par15_hv + w6_c_hv * par16_hv + w7_c_hv * par17_hv + w8_c_hv * par18_hv + w9_c_hv * par19_hv + w10_c_hv *  
+ par20_hv 
parameters p2_c1p_hv=w11_c_hv * par11_hv + w12_c_hv * par12_hv + w13_c_hv * par13_hv + w14_c_hv * par14_hv  
+ + w15_c_hv * par15_hv + w16_c_hv * par16_hv + w17_c_hv * par17_hv + w18_c_hv * par18_hv + w19_c_hv * par19_hv  
+ + w20_c_hv * par20_hv 
parameters p2_c2n_hv=w21_c_hv * par11_hv + w22_c_hv * par12_hv + w23_c_hv * par13_hv + w24_c_hv * par14_hv  
+ + w25_c_hv * par15_hv + w26_c_hv * par16_hv + w27_c_hv * par17_hv + w28_c_hv * par18_hv + w29_c_hv * par19_hv  
+ + w30_c_hv * par20_hv 
parameters p2_c2p_hv=w31_c_hv * par11_hv + w32_c_hv * par12_hv + w33_c_hv * par13_hv + w34_c_hv * par14_hv  
+ + w35_c_hv * par15_hv + w36_c_hv * par16_hv + w37_c_hv * par17_hv + w38_c_hv * par18_hv + w39_c_hv * par19_hv  
+ + w40_c_hv * par20_hv 
parameters p2_c3n_hv=w41_c_hv * par11_hv + w42_c_hv * par12_hv + w43_c_hv * par13_hv + w44_c_hv * par14_hv  
+ + w45_c_hv * par15_hv + w46_c_hv * par16_hv + w47_c_hv * par17_hv + w48_c_hv * par18_hv + w49_c_hv * par19_hv  
+ + w50_c_hv * par20_hv 
parameters p2_c3p_hv=w51_c_hv * par11_hv + w52_c_hv * par12_hv + w53_c_hv * par13_hv + w54_c_hv * par14_hv  
+ + w55_c_hv * par15_hv + w56_c_hv * par16_hv + w57_c_hv * par17_hv + w58_c_hv * par18_hv + w59_c_hv * par19_hv  
+ + w60_c_hv * par20_hv 
parameters p2_c4n_hv=w61_c_hv * par11_hv + w62_c_hv * par12_hv + w63_c_hv * par13_hv + w64_c_hv * par14_hv  
+ + w65_c_hv * par15_hv + w66_c_hv * par16_hv + w67_c_hv * par17_hv + w68_c_hv * par18_hv + w69_c_hv * par19_hv  
+ + w70_c_hv * par20_hv 
parameters p2_c4p_hv=w71_c_hv * par11_hv + w72_c_hv * par12_hv + w73_c_hv * par13_hv + w74_c_hv * par14_hv  
+ + w75_c_hv * par15_hv + w76_c_hv * par16_hv + w77_c_hv * par17_hv + w78_c_hv * par18_hv + w79_c_hv * par19_hv  
+ + w80_c_hv * par20_hv 
parameters p2_c5n_hv=w81_c_hv * par11_hv + w82_c_hv * par12_hv + w83_c_hv * par13_hv + w84_c_hv * par14_hv  
+ + w85_c_hv * par15_hv + w86_c_hv * par16_hv + w87_c_hv * par17_hv + w88_c_hv * par18_hv + w89_c_hv * par19_hv  
+ + w90_c_hv * par20_hv 
parameters p2_c5p_hv=w91_c_hv * par11_hv + w92_c_hv * par12_hv + w93_c_hv * par13_hv + w94_c_hv * par14_hv  
+ + w95_c_hv * par15_hv + w96_c_hv * par16_hv + w97_c_hv * par17_hv + w98_c_hv * par18_hv + w99_c_hv * par19_hv  
+ + w100_c_hv * par20_hv 
parameters p3_c1n_hv=w1_c_hv * par21_hv + w2_c_hv * par22_hv + w3_c_hv * par23_hv + w4_c_hv * par24_hv + w5_c_hv  
+ * par25_hv + w6_c_hv * par26_hv + w7_c_hv * par27_hv + w8_c_hv * par28_hv + w9_c_hv * par29_hv + w10_c_hv *  
+ par30_hv 
parameters p3_c1p_hv=w11_c_hv * par21_hv + w12_c_hv * par22_hv + w13_c_hv * par23_hv + w14_c_hv * par24_hv  
+ + w15_c_hv * par25_hv + w16_c_hv * par26_hv + w17_c_hv * par27_hv + w18_c_hv * par28_hv + w19_c_hv * par29_hv  
+ + w20_c_hv * par30_hv 
parameters p3_c2n_hv=w21_c_hv * par21_hv + w22_c_hv * par22_hv + w23_c_hv * par23_hv + w24_c_hv * par24_hv  
+ + w25_c_hv * par25_hv + w26_c_hv * par26_hv + w27_c_hv * par27_hv + w28_c_hv * par28_hv + w29_c_hv * par29_hv  
+ + w30_c_hv * par30_hv 
parameters p3_c2p_hv=w31_c_hv * par21_hv + w32_c_hv * par22_hv + w33_c_hv * par23_hv + w34_c_hv * par24_hv  
+ + w35_c_hv * par25_hv + w36_c_hv * par26_hv + w37_c_hv * par27_hv + w38_c_hv * par28_hv + w39_c_hv * par29_hv  
+ + w40_c_hv * par30_hv 
parameters p3_c3n_hv=w41_c_hv * par21_hv + w42_c_hv * par22_hv + w43_c_hv * par23_hv + w44_c_hv * par24_hv  
+ + w45_c_hv * par25_hv + w46_c_hv * par26_hv + w47_c_hv * par27_hv + w48_c_hv * par28_hv + w49_c_hv * par29_hv  
+ + w50_c_hv * par30_hv 
parameters p3_c3p_hv=w51_c_hv * par21_hv + w52_c_hv * par22_hv + w53_c_hv * par23_hv + w54_c_hv * par24_hv  
+ + w55_c_hv * par25_hv + w56_c_hv * par26_hv + w57_c_hv * par27_hv + w58_c_hv * par28_hv + w59_c_hv * par29_hv  
+ + w60_c_hv * par30_hv 
parameters p3_c4n_hv=w61_c_hv * par21_hv + w62_c_hv * par22_hv + w63_c_hv * par23_hv + w64_c_hv * par24_hv  
+ + w65_c_hv * par25_hv + w66_c_hv * par26_hv + w67_c_hv * par27_hv + w68_c_hv * par28_hv + w69_c_hv * par29_hv  
+ + w70_c_hv * par30_hv 
parameters p3_c4p_hv=w71_c_hv * par21_hv + w72_c_hv * par22_hv + w73_c_hv * par23_hv + w74_c_hv * par24_hv  
+ + w75_c_hv * par25_hv + w76_c_hv * par26_hv + w77_c_hv * par27_hv + w78_c_hv * par28_hv + w79_c_hv * par29_hv  
+ + w80_c_hv * par30_hv 
parameters p3_c5n_hv=w81_c_hv * par21_hv + w82_c_hv * par22_hv + w83_c_hv * par23_hv + w84_c_hv * par24_hv  
+ + w85_c_hv * par25_hv + w86_c_hv * par26_hv + w87_c_hv * par27_hv + w88_c_hv * par28_hv + w89_c_hv * par29_hv  
+ + w90_c_hv * par30_hv 
parameters p3_c5p_hv=w91_c_hv * par21_hv + w92_c_hv * par22_hv + w93_c_hv * par23_hv + w94_c_hv * par24_hv  
+ + w95_c_hv * par25_hv + w96_c_hv * par26_hv + w97_c_hv * par27_hv + w98_c_hv * par28_hv + w99_c_hv * par29_hv  
+ + w100_c_hv * par30_hv 
parameters p4_c1n_hv=par31_hv 
parameters p4_c1p_hv=par31_hv 
parameters p4_c2n_hv=par31_hv 
parameters p4_c2p_hv=par31_hv 
parameters p4_c3n_hv=par31_hv 
parameters p4_c3p_hv=par31_hv 
parameters p4_c4n_hv=par31_hv 
parameters p4_c4p_hv=par31_hv 
parameters p4_c5n_hv=par31_hv 
parameters p4_c5p_hv=par31_hv 
parameters p5_c1n_hv=par32_hv 
parameters p5_c1p_hv=par32_hv 
parameters p5_c2n_hv=par32_hv 
parameters p5_c2p_hv=par32_hv 
parameters p5_c3n_hv=par32_hv 
parameters p5_c3p_hv=par32_hv 
parameters p5_c4n_hv=par32_hv 
parameters p5_c4p_hv=par32_hv 
parameters p5_c5n_hv=par32_hv 
parameters p5_c5p_hv=par32_hv 
parameters p1_io1n_hv=w1_io_hv * par1_io_hv + w2_io_hv * par2_io_hv + w3_io_hv * par3_io_hv + w4_io_hv *  
+ par4_io_hv + w5_io_hv * par5_io_hv + w6_io_hv * par6_io_hv 
parameters p1_io1p_hv=w7_io_hv * par1_io_hv + w8_io_hv * par2_io_hv + w9_io_hv * par3_io_hv + w10_io_hv  
+ * par4_io_hv + w11_io_hv * par5_io_hv + w12_io_hv * par6_io_hv 
parameters p1_io2n_hv=w13_io_hv * par1_io_hv + w14_io_hv * par2_io_hv + w15_io_hv * par3_io_hv + w16_io_hv  
+ * par4_io_hv + w17_io_hv * par5_io_hv + w18_io_hv * par6_io_hv 
parameters p1_io2p_hv=w19_io_hv * par1_io_hv + w20_io_hv * par2_io_hv + w21_io_hv * par3_io_hv + w22_io_hv  
+ * par4_io_hv + w23_io_hv * par5_io_hv + w24_io_hv * par6_io_hv 
parameters p1_io3n_hv=w25_io_hv * par1_io_hv + w26_io_hv * par2_io_hv + w27_io_hv * par3_io_hv + w28_io_hv  
+ * par4_io_hv + w29_io_hv * par5_io_hv + w30_io_hv * par6_io_hv 
parameters p1_io3p_hv=w31_io_hv * par1_io_hv + w32_io_hv * par2_io_hv + w33_io_hv * par3_io_hv + w34_io_hv  
+ * par4_io_hv + w35_io_hv * par5_io_hv + w36_io_hv * par6_io_hv 
parameters p2_io1n_hv=w1_io_hv * par7_io_hv + w2_io_hv * par8_io_hv + w3_io_hv * par9_io_hv + w4_io_hv *  
+ par10_io_hv + w5_io_hv * par11_io_hv + w6_io_hv * par12_io_hv 
parameters p2_io1p_hv=w7_io_hv * par7_io_hv + w8_io_hv * par8_io_hv + w9_io_hv * par9_io_hv + w10_io_hv  
+ * par10_io_hv + w11_io_hv * par11_io_hv + w12_io_hv * par12_io_hv 
parameters p2_io2n_hv=w13_io_hv * par7_io_hv + w14_io_hv * par8_io_hv + w15_io_hv * par9_io_hv + w16_io_hv  
+ * par10_io_hv + w17_io_hv * par11_io_hv + w18_io_hv * par12_io_hv 
parameters p2_io2p_hv=w19_io_hv * par7_io_hv + w20_io_hv * par8_io_hv + w21_io_hv * par9_io_hv + w22_io_hv  
+ * par10_io_hv + w23_io_hv * par11_io_hv + w24_io_hv * par12_io_hv 
parameters p2_io3n_hv=w25_io_hv * par7_io_hv + w26_io_hv * par8_io_hv + w27_io_hv * par9_io_hv + w28_io_hv  
+ * par10_io_hv + w29_io_hv * par11_io_hv + w30_io_hv * par12_io_hv 
parameters p2_io3p_hv=w31_io_hv * par7_io_hv + w32_io_hv * par8_io_hv + w33_io_hv * par9_io_hv + w34_io_hv  
+ * par10_io_hv + w35_io_hv * par11_io_hv + w36_io_hv * par12_io_hv 
parameters p3_io1n_hv=w1_io_hv * par13_io_hv + w2_io_hv * par14_io_hv + w3_io_hv * par15_io_hv + w4_io_hv  
+ * par16_io_hv + w5_io_hv * par17_io_hv + w6_io_hv * par18_io_hv 
parameters p3_io1p_hv=w7_io_hv * par13_io_hv + w8_io_hv * par14_io_hv + w9_io_hv * par15_io_hv + w10_io_hv  
+ * par16_io_hv + w11_io_hv * par17_io_hv + w12_io_hv * par18_io_hv 
parameters p3_io2n_hv=w13_io_hv * par13_io_hv + w14_io_hv * par14_io_hv + w15_io_hv * par15_io_hv + w16_io_hv  
+ * par16_io_hv + w17_io_hv * par17_io_hv + w18_io_hv * par18_io_hv 
parameters p3_io2p_hv=w19_io_hv * par13_io_hv + w20_io_hv * par14_io_hv + w21_io_hv * par15_io_hv + w22_io_hv  
+ * par16_io_hv + w23_io_hv * par17_io_hv + w24_io_hv * par18_io_hv 
parameters p3_io3n_hv=w25_io_hv * par13_io_hv + w26_io_hv * par14_io_hv + w27_io_hv * par15_io_hv + w28_io_hv  
+ * par16_io_hv + w29_io_hv * par17_io_hv + w30_io_hv * par18_io_hv 
parameters p3_io3p_hv=w31_io_hv * par13_io_hv + w32_io_hv * par14_io_hv + w33_io_hv * par15_io_hv + w34_io_hv  
+ * par16_io_hv + w35_io_hv * par17_io_hv + w36_io_hv * par18_io_hv 
parameters p4_io1n_hv=par19_io_hv 
parameters p4_io1p_hv=par19_io_hv 
parameters p4_io2n_hv=par19_io_hv 
parameters p4_io2p_hv=par19_io_hv 
parameters p4_io3n_hv=par19_io_hv 
parameters p4_io3p_hv=par19_io_hv 
parameters p5_io1n_hv=par20_io_hv 
parameters p5_io1p_hv=par20_io_hv 
parameters p5_io2n_hv=par20_io_hv 
parameters p5_io2p_hv=par20_io_hv 
parameters p5_io3n_hv=par20_io_hv 
parameters p5_io3p_hv=par20_io_hv 
  
  
statistics {  
    process {  
        vary r1_hv dist=gauss std=1/1  
        vary r2_hv dist=gauss std=1/1  
        vary r3_hv dist=gauss std=1/1  
        vary r4_hv dist=gauss std=1/1  
        vary r5_hv dist=gauss std=1/1  
        vary r6_hv dist=gauss std=1/1  
        vary r11_hv dist=gauss std=1/1  
        vary r12_hv dist=gauss std=1/1  
        vary r13_hv dist=gauss std=1/1  
        vary r14_hv dist=gauss std=1/1  
        vary r15_hv dist=gauss std=1/1  
        vary r16_hv dist=gauss std=1/1  
        vary r21_hv dist=gauss std=1/1  
        vary r22_hv dist=gauss std=1/1  
        vary r23_hv dist=gauss std=1/1  
        vary r24_hv dist=gauss std=1/1  
        vary r25_hv dist=gauss std=1/1  
        vary r26_hv dist=gauss std=1/1  
        vary r31_hv dist=gauss std=1/1  
        vary r32_hv dist=gauss std=1/1  
        vary r1_io_hv dist=gauss std=1/1  
        vary r2_io_hv dist=gauss std=1/1  
        vary r3_io_hv dist=gauss std=1/1  
        vary r4_io_hv dist=gauss std=1/1  
        vary r5_io_hv dist=gauss std=1/1  
        vary r6_io_hv dist=gauss std=1/1  
        vary r7_io_hv dist=gauss std=1/1  
        vary r8_io_hv dist=gauss std=1/1  
        vary r9_io_hv dist=gauss std=1/1  
        vary r10_io_hv dist=gauss std=1/1  
        vary r11_io_hv dist=gauss std=1/1  
        vary r12_io_hv dist=gauss std=1/1  
        vary r13_io_hv dist=gauss std=1/1  
        vary r14_io_hv dist=gauss std=1/1  
        vary r15_io_hv dist=gauss std=1/1  
        vary r16_io_hv dist=gauss std=1/1  
        vary r17_io_hv dist=gauss std=1/1  
        vary r18_io_hv dist=gauss std=1/1  
        vary r19_io_hv dist=gauss std=1/1  
        vary r20_io_hv dist=gauss std=1/1  
        vary r1_cap_hv dist=gauss std=1/1  
        vary r2_cap_hv dist=gauss std=1/1  
        }  
  
    mismatch {  
        vary plo_tox_hv dist=gauss std=1/1  
        vary plo_dxl_hv dist=gauss std=1/1  
        vary plo_dxw_hv dist=gauss std=1/1  
        vary parl1_hv dist=gauss std=1/1  
        vary parl2_hv dist=gauss std=1/1  
        }  
 }  
  
endsection stat_hv 
  
 
section ttg_hv18 
parameters toxp_hv18_ms_global=0 
parameters dxlp_hv18_ms_global=0 
parameters dxwp_hv18_ms_global=0 
parameters cjsp_hv18_ms_global=0 
parameters cjswsp_hv18_ms_global=0 
parameters cjswgsp_hv18_ms_global=0 
parameters cjdp_hv18_ms_global=0 
parameters cjswdp_hv18_ms_global=0 
parameters cjswgdp_hv18_ms_global=0 
parameters cgdop_hv18_ms_global=0 
parameters cgsop_hv18_ms_global=0 
parameters cgdlp_hv18_ms_global=0 
parameters cgslp_hv18_ms_global=0 
parameters cfsp_hv18_ms_global=0 
parameters cfdsp_hv18_ms_global=0 
parameters dvthp_hv18_ms_global=0 
parameters dlvthp_hv18_ms_global=0 
parameters dwvthp_hv18_ms_global=0 
parameters dpvthp_hv18_ms_global=0 
parameters du0p_hv18_ms_global=0 
parameters dlu0p_hv18_ms_global=0 
parameters dwu0p_hv18_ms_global=0 
parameters dpu0p_hv18_ms_global=0 
parameters dvsatp_hv18_ms_global=0 
parameters dcitp_hv18_ms_global=0 
parameters da0p_hv18_ms_global=0 
parameters dla0p_hv18_ms_global=0 
parameters dwa0p_hv18_ms_global=0 
parameters dpa0p_hv18_ms_global=0 
parameters ss_flagp_hv18_ms_global=0 
parameters ff_flagp_hv18_ms_global=0 
parameters monte_flagp_hv18_ms_global=0 
parameters sf_flagp_hv18_ms_global=0 
parameters fs_flagp_hv18_ms_global=0 
parameters toxn_hv18_ms_global=0 
parameters dxln_hv18_ms_global=0 
parameters dxwn_hv18_ms_global=0 
parameters cjsn_hv18_ms_global=0 
parameters cjswsn_hv18_ms_global=0 
parameters cjswgsn_hv18_ms_global=0 
parameters cjdn_hv18_ms_global=0 
parameters cjswdn_hv18_ms_global=0 
parameters cjswgdn_hv18_ms_global=0 
parameters cfsn_hv18_ms_global=0 
parameters cfdsn_hv18_ms_global=0 
parameters cgdln_hv18_ms_global=0 
parameters cgsln_hv18_ms_global=0 
parameters cgdon_hv18_ms_global=0 
parameters cgson_hv18_ms_global=0 
parameters dvthn_hv18_ms_global=0 
parameters dlvthn_hv18_ms_global=0 
parameters dwvthn_hv18_ms_global=0 
parameters dpvthn_hv18_ms_global=0 
parameters dcitn_hv18_ms_global=0 
parameters du0n_hv18_ms_global=0 
parameters dlu0n_hv18_ms_global=0 
parameters dwu0n_hv18_ms_global=0 
parameters dpu0n_hv18_ms_global=0 
parameters dvsatn_hv18_ms_global=0 
parameters dwvsatn_hv18_ms_global=0 
parameters dagsn_hv18_ms_global=0 
parameters dlagsn_hv18_ms_global=0 
parameters dwagsn_hv18_ms_global=0 
parameters ss_flagn_hv18_ms_global=0 
parameters ff_flagn_hv18_ms_global=0 
parameters monte_flagn_hv18_ms_global=0 
parameters sf_flagn_hv18_ms_global=0 
parameters fs_flagn_hv18_ms_global=0 
  
endsection ttg_hv18 
  
 
section ssg_hv18 
parameters toxp_hv18_ms_global=2e-010 
parameters dxlp_hv18_ms_global=6.67e-009 
parameters dxwp_hv18_ms_global=-6.67e-009 
parameters cjsp_hv18_ms_global=0.000102639 
parameters cjswsp_hv18_ms_global=6.60767e-012 
parameters cjswgsp_hv18_ms_global=6.12802e-012 
parameters cjdp_hv18_ms_global=4.935e-005 
parameters cjswdp_hv18_ms_global=2.254e-011 
parameters cjswgdp_hv18_ms_global=2.835e-011 
parameters cgdop_hv18_ms_global=-1.83599e-012 
parameters cgsop_hv18_ms_global=-6.74398e-012 
parameters cgdlp_hv18_ms_global=-5.21504e-011 
parameters cgslp_hv18_ms_global=-8.86949e-012 
parameters cfsp_hv18_ms_global=-5.47487e-012 
parameters cfdsp_hv18_ms_global=-9.92747e-013 
parameters dvthp_hv18_ms_global=-0.0675 
parameters dlvthp_hv18_ms_global=-2.2e-009 
parameters dwvthp_hv18_ms_global=-7e-009 
parameters dpvthp_hv18_ms_global=-5.5e-015 
parameters du0p_hv18_ms_global=0.00106 
parameters dlu0p_hv18_ms_global=-3.7e-010 
parameters dwu0p_hv18_ms_global=-1e-010 
parameters dpu0p_hv18_ms_global=1.2e-016 
parameters dvsatp_hv18_ms_global=0 
parameters dcitp_hv18_ms_global=5e-005 
parameters da0p_hv18_ms_global=-0.005 
parameters dla0p_hv18_ms_global=-1e-007 
parameters dwa0p_hv18_ms_global=-2e-007 
parameters dpa0p_hv18_ms_global=6e-014 
parameters ss_flagp_hv18_ms_global=1 
parameters ff_flagp_hv18_ms_global=0 
parameters monte_flagp_hv18_ms_global=0 
parameters sf_flagp_hv18_ms_global=0 